[TITLE]


[JUNCTIONS]
;ID              	Elev        	Demand      	Pattern         
 20              	6.23        	31.51       	1               	;
 30              	15.54       	12.52       	1               	;
 40              	15.24       	12.52       	1               	;
 50              	15.24       	31.51       	1               	;
 60              	15.24       	50.90       	1               	;
 70              	15.24       	31.51       	1               	;
 80              	15.24       	31.51       	1               	;
 90              	15.24       	63.83       	1               	;
 100             	15.24       	12.52       	1               	;
 110             	15.24       	12.52       	1               	;
 120             	36.6        	31.51       	1               	;
 130             	36.6        	12.52       	1               	;
 140             	24.4        	12.52       	1               	;
 150             	36.6        	12.52       	1               	;
 160             	36.6        	31.51       	1               	;
 170             	36.6        	12.52       	1               	;

[RESERVOIRS]
;ID              	Head        	Pattern         
 500             	3.04        	                	;

[TANKS]
;ID              	Elevation   	InitLevel   	MinLevel    	MaxLevel    	Diameter    	MinVol      	VolCurve        	Overflow
 502             	65.5        	3.0         	0.0         	10.7        	16.0        	0           	                	;
 501             	65.5        	3.0         	0.0         	10.7        	17.0        	0           	                	;

[PIPES]
;ID              	Node1           	Node2           	Length      	Diameter    	Roughness   	MinorLoss   	Status
 1002            	20              	70              	3657        	406         	100         	0           	Open  	;
 1004            	20              	30              	3657        	406         	100         	0           	Open  	;
 1006            	20              	110             	3657        	406         	100         	0           	Open  	;
 1008            	30              	70              	2743        	305         	100         	0           	Open  	;
 1010            	70              	100             	1830        	305         	100         	0           	Open  	;
 1012            	70              	90              	1830        	254         	100         	0           	Open  	;
 1014            	70              	60              	1830        	305         	100         	0           	Open  	;
 1016            	60              	90              	1830        	254         	100         	0           	Open  	;
 1018            	60              	80              	1830        	305         	100         	0           	Open  	;
 1020            	80              	90              	1830        	254         	100         	0           	Open  	;
 1022            	90              	150             	1830        	254         	100         	0           	Open  	;
 1024            	90              	100             	1830        	254         	100         	0           	Open  	;
 1026            	100             	150             	1830        	254         	100         	0           	Open  	;
 1028            	80              	150             	1830        	305         	100         	0           	Open  	;
 1030            	30              	60              	1830        	254         	100         	0           	Open  	;
 1032            	30              	40              	1830        	254         	100         	0           	Open  	;
 1034            	30              	50              	2743        	254         	100         	0           	Open  	;
 1036            	40              	50              	1830        	254         	100         	0           	Open  	;
 1038            	50              	80              	1830        	254         	100         	0           	Open  	;
 1040            	80              	140             	1830        	254         	100         	0           	Open  	;
 1042            	140             	150             	1830        	254         	100         	0           	Open  	;
 1044            	150             	160             	1830        	203         	100         	0           	Open  	;
 1046            	100             	160             	1830        	305         	100         	0           	Open  	;
 1048            	100             	110             	1830        	203         	100         	0           	Open  	;
 1050            	110             	160             	1830        	254         	100         	0           	Open  	;
 1052            	110             	120             	1830        	203         	100         	0           	Open  	;
 1056            	120             	130             	1830        	203         	100         	0           	Open  	;
 1058            	130             	160             	1830        	254         	100         	0           	Open  	;
 1060            	130             	170             	1830        	203         	100         	0           	Open  	;
 1062            	140             	160             	3656        	203         	100         	0           	Open  	;
 1066            	50              	140             	3656        	203         	100         	0           	Open  	;
 1064            	140             	170             	3656        	203         	100         	0           	Open  	;
 1078            	60              	501             	30.5        	305         	110         	0           	Open  	;
 1080            	160             	502             	30.5        	305         	110         	0           	Open  	;

[PUMPS]
;ID              	Node1           	Node2           	Parameters
 2001            	500             	20              	HEAD 1	;
 2002            	500             	20              	HEAD 1	;
 2003            	500             	20              	HEAD 1	;

[VALVES]
;ID              	Node1           	Node2           	Diameter    	Type	Setting     	MinorLoss   

[TAGS]

[DEMANDS]
;Junction        	Demand      	Pattern         	Category

[STATUS]
;ID              	Status/Setting

[PATTERNS]
;ID              	Multipliers
;需水模式
 1               	0.7         	0.7         	0.7         	0.6         	0.6         	0.6         
 1               	1.2         	1.2         	1.2         	1.3         	1.3         	1.3         
 1               	1.2         	1.2         	1.2         	1.1         	1.1         	1.1         
 1               	1.0         	1.0         	1.0         	0.9         	0.9         	0.9         

[CURVES]
;ID              	X-Value     	Y-Value
;PUMP: PUMP: 水泵流量和水头关系曲线
 1               	0.0         	91.4        
 1               	252.5       	82.3        
 1               	504.7       	55.2        

[CONTROLS]


[RULES]


[ENERGY]
 Global Efficiency  	75
 Global Price       	0
 Demand Charge      	0

[EMITTERS]
;Junction        	Coefficient

[QUALITY]
;Node            	InitQual

[SOURCES]
;Node            	Type        	Quality     	Pattern

[REACTIONS]
;Type     	Pipe/Tank       	Coefficient


[REACTIONS]
 Order Bulk            	1
 Order Tank            	1
 Order Wall            	1
 Global Bulk           	0
 Global Wall           	0
 Limiting Potential    	0
 Roughness Correlation 	0

[MIXING]
;Tank            	Model

[TIMES]
 Duration           	24:00 
 Hydraulic Timestep 	1:00 
 Quality Timestep   	0:05 
 Pattern Timestep   	1:00 
 Pattern Start      	0:00 
 Report Timestep    	1:00 
 Report Start       	0:00 
 Start ClockTime    	12 am
 Statistic          	NONE

[REPORT]
 Status             	Full
 Summary            	No
 Page               	0

[OPTIONS]
 Units              	LPS
 Headloss           	H-W
 Specific Gravity   	1
 Viscosity          	1
 Trials             	40
 Accuracy           	0.001
 CHECKFREQ          	2
 MAXCHECK           	10
 DAMPLIMIT          	0
 Unbalanced         	Continue 10
 Pattern            	1
 Demand Multiplier  	1.0
 Emitter Exponent   	0.5
 Quality            	None mg/L
 Diffusivity        	1
 Tolerance          	0.01

[COORDINATES]
;Node            	X-Coord           	Y-Coord
20              	-2466.960         	2995.595          
30              	-2143.906         	6255.507          
40              	-1923.642         	8399.413          
50              	521.292           	8678.414          
60              	7.342             	6989.721          
70              	95.448            	4508.076          
80              	1975.037          	7239.354          
90              	1578.561          	5682.819          
100             	2665.198          	4478.708          
110             	2694.567          	3494.860          
120             	4441.997          	2276.065          
130             	5881.057          	3494.860          
140             	4280.470          	7503.671          
150             	3443.465          	6549.192          
160             	5117.474          	4640.235          
170             	7511.013          	6270.191          
500             	-3301.676         	2213.774          
502             	5829.662          	5741.557          
501             	0.000             	7767.988          

[VERTICES]
;Link            	X-Coord           	Y-Coord

[LABELS]
;X-Coord             Y-Coord             Label & Anchor Node

[BACKDROP]
  DIMENSIONS  	0.000             	0.000             	10000.000         	10000.000         
 UNITS          	None
 FILE           	
 OFFSET         	0.00            	0.00            

[END]
